/batch
/config,noeldb,1     ! force off writing results to database
*get,_wallstrt,active,,time,wall
! ANSYS input file written by Workbench version 2024 R1
! File used for geometry attach: D:\github_local\ZZZ_ASMAD_Ansys_Tutorials\Models\Cantilever_beam\Cantilever_beam_files\dp0\Geom\DM\Geom.scdoc
/title,Cantilever_beam--Static Structural (C5)
! ****** Begin Custom Load Command Snippet ******
/COM, ACT Extensions:
/COM,     LSDYNA, 2024.1
/COM,     5f463412-bd3e-484b-87e7-cbc0a665e474, wbex
/COM,/COM,     ANSYSMotion, 2024.1
/COM,     20180725-3f81-49eb-9f31-41364844c769, wbex
/COM,
! ****** End   Custom Load Command Snippet ******
*DIM,_wb_ProjectScratch_dir,string,248
_wb_ProjectScratch_dir(1) = 'D:\github_local\ZZZ_ASMAD_Ansys_Tutorials\Models\Cantilever_beam\_ProjectScratch\Scr9D2B\'
*DIM,_wb_SolverFiles_dir,string,248
_wb_SolverFiles_dir(1) = 'D:\github_local\ZZZ_ASMAD_Ansys_Tutorials\Models\Cantilever_beam\Cantilever_beam_files\dp0\SYS-1\MECH\'
*DIM,_wb_userfiles_dir,string,248
_wb_userfiles_dir(1) = 'D:\github_local\ZZZ_ASMAD_Ansys_Tutorials\Models\Cantilever_beam\Cantilever_beam_files\user_files\'
/com,--- Data in consistent MKS units. See Solving Units in the help system for more information.
/units,MKS
/nopr
/wb,file,start              !  signify a WB generated input file
/prep7
! Turn off shape checking because checks already performed inside WB mesher.
! See help system for more information.
SHPP,OFF,,NOWARN
/nolist
etcon,set             ! allow ANSYS to choose best KEYOP's for 180x elements, resets any applicable keyopt to MAPDL defaults
/com,*********** Nodes for the whole assembly ***********
nblock,3,,4183
(1i9,3e20.9e3)
        1     9.800000000E-01    -1.000000000E-02    -8.000000000E-02
        2     9.800000000E-01    -1.000000000E-02    -6.000000000E-02
        3     9.800000000E-01    -1.000000000E-02    -4.000000000E-02
        4     9.800000000E-01    -1.000000000E-02    -2.000000000E-02
        5     9.800000000E-01    -1.000000000E-02     0.000000000E+00
        6     9.800000000E-01    -1.000000000E-02     2.000000000E-02
        7     9.800000000E-01    -1.000000000E-02     4.000000000E-02
        8     9.800000000E-01    -1.000000000E-02     6.000000000E-02
        9     9.800000000E-01    -1.000000000E-02     8.000000000E-02
       10     9.600000000E-01    -1.000000000E-02    -8.000000000E-02
       11     9.600000000E-01    -1.000000000E-02    -6.000000000E-02
       12     9.600000000E-01    -1.000000000E-02    -4.000000000E-02
       13     9.600000000E-01    -1.000000000E-02    -2.000000000E-02
       14     9.600000000E-01    -1.000000000E-02     0.000000000E+00
       15     9.600000000E-01    -1.000000000E-02     2.000000000E-02
       16     9.600000000E-01    -1.000000000E-02     4.000000000E-02
       17     9.600000000E-01    -1.000000000E-02     6.000000000E-02
       18     9.600000000E-01    -1.000000000E-02     8.000000000E-02
       19     9.400000000E-01    -1.000000000E-02    -8.000000000E-02
       20     9.400000000E-01    -1.000000000E-02    -6.000000000E-02
! ... 3784 like lines cut
/wb,elem,start            !  set before creation of elements
/com,*********** Elements for Body 1 "Geom\Solid1" ***********
et,1,186
keyo,1,2,1          ! set full integration on SOLID186
eblock,19,solid,,500
(19i9)
        1        1        1        1        0        0        0        0       20        0        1      441     1105     1104     1102      442      892      901      902
     2503     3787     3785     2502     2506     3464     3482     2507     2501     3465     3483     3485
        1        1        1        1        0        0        0        0       20        0        2      432      441     1102     1101      451      442      902      903
     2473     2502     3784     2475     2505     2507     3484     2534     2474     2501     3485     3487
        1        1        1        1        0        0        0        0       20        0        3      423      432     1101     1100      460      451      903      904
     2445     2475     3783     2447     2533     2534     3486     2553     2446     2474     3487     3489
        1        1        1        1        0        0        0        0       20        0        4      414      423     1100     1099      469      460      904      905
     2417     2447     3782     2419     2552     2553     3488     2572     2418     2446     3489     3491
        1        1        1        1        0        0        0        0       20        0        5      405      414     1099     1098      478      469      905      906
     2389     2419     3781     2391     2571     2572     3490     2591     2390     2418     3491     3493
        1        1        1        1        0        0        0        0       20        0        6      396      405     1098     1097      487      478      906      907
     2361     2391     3780     2363     2590     2591     3492     2610     2362     2390     3493     3495
        1        1        1        1        0        0        0        0       20        0        7      387      396     1097     1096      496      487      907      908
     2333     2363     3779     2335     2609     2610     3494     2629     2334     2362     3495     3497
        1        1        1        1        0        0        0        0       20        0        8      378      387     1096     1095      505      496      908      909
     2305     2335     3778     2307     2628     2629     3496     2648     2306     2334     3497     3499
        1        1        1        1        0        0        0        0       20        0        9      369      378     1095     1094      514      505      909      910
     2277     2307     3777     2279     2647     2648     3498     2667     2278     2306     3499     3501
        1        1        1        1        0        0        0        0       20        0       10      360      369     1094     1093      523      514      910      911
     2249     2279     3776     2251     2666     2667     3500     2686     2250     2278     3501     3503
! ... 981 like lines cut
!Material Id = {84728D98-8F26-4965-A9F7-5CEF3C6FBE5F}
/wb,elem,end               !  done creating elements
/com,*********** Send User Defined Coordinate System(s) ***********
csys,0
toffst,273.15,  ! Temperature offset from absolute zero
/com,*********** Set Reference Temperature ***********
tref,22.
/wb,mat,start              !  starting to send materials
/com,*********** Send Materials ***********
Temperature = 'TEMP' ! Temperature
MP,DENS,1,7850,	! kg m^-3
MP,ALPX,1,1.2e-05,	! C^-1
MP,C,1,434,	! J kg^-1 C^-1
MP,KXX,1,60.5,	! W m^-1 C^-1
MP,RSVX,1,1.7e-07,	! kg m^3 A^-2 s^-3
MP,EX,1,200000000000,	! Pa
MP,NUXY,1,0.3,
MP,MURX,1,10000,
MP,UVID,1,4c08cc56-0eca-497d-ba63-c3bd80e1dff4
MP,UMID,1,59002a79-71c2-428e-906b-55d7dbee100e

/wb,mat,end                !  done sending materials
!************************* Model Summary ********************
!Geom\Solid1,	Structural Steel,	matid,	1
!************************* End Model Summary ********************
! get the diagonal of the bounding box. Needed later for other things
*get,_xmin,node,,mnloc,x
*get,_ymin,node,,mnloc,y
*get,_zmin,node,,mnloc,z
*get,_xmax,node,,mxloc,x
*get,_ymax,node,,mxloc,y
*get,_zmax,node,,mxloc,z
_ASMDIAG=(_xmax-_xmin)*(_xmax-_xmin)+(_ymax-_ymin)*(_ymax-_ymin)+(_zmax-_zmin)*(_zmax-_zmin)
_ASMDIAG=SQRT(_ASMDIAG)
/wb,contact,start          !  starting to send contact
/wb,contact,end            !  done creating contacts
/golist
/wb,load,start             !  starting to send loads
/com,*********** Fixed Supports ***********
CMBLOCK,_FIXEDSU,NODE,       53
(8i10)
       892       893       894       895       896       897       898       899
       900       901       952      1053      1104      1105      1106      1107
      1108      1109      1110      1111      1112      1113      3463      3464
      3465      3466      3467      3468      3469      3470      3471      3472
      3473      3474      3475      3476      3477      3478      3479      3480
      3481      3483      3584      3735      3787      3788      3789      3790
      3791      3792      3793      3794      3795
cmsel,s,_FIXEDSU
d,all,all
nsel,all
/com,*********** Define Force Using Surface Effect Elements ***********
local,12,0,0.,0.,0.,0.,0.,0.
csys,0
et,2,154
mat,2
eblock,10,,,10
(15i9)
     1621        2        2        2       12     1103     1114      883      951     3786     3446     3445     3582
     1622        2        2        2       12     1114     1115      884      883     3796     3448     3444     3446
     1623        2        2        2       12     1115     1116      885      884     3797     3450     3447     3448
     1624        2        2        2       12     1116     1117      886      885     3798     3452     3449     3450
     1625        2        2        2       12     1117     1118      887      886     3799     3454     3451     3452
     1626        2        2        2       12     1118     1119      888      887     3800     3456     3453     3454
     1627        2        2        2       12     1119     1120      889      888     3801     3458     3455     3456
     1628        2        2        2       12     1120     1121      890      889     3802     3460     3457     3458
     1629        2        2        2       12     1121     1122      891      890     3803     3462     3459     3460
     1630        2        2        2       12     1122     1052     1002      891     3734     3683     3461     3462
-1
esel,s,type,,2
keyop,2,2,1                ! Apply load in local coordinate system
keyop,2,7,1                ! Use original area so load is constant in large deformation
esel,all
/gst,on,on
fini
*get,_numnode,node,0,count
*get,_numelem,elem,0,count
*get, _MAXELEMNUM, elem, 0, NUM, MAX
*get, _MAXNODENUM, node, 0, NUM, MAX
*get, _MAXELEMTYPE, etyp, 0, NUM, MAX
*get, _MAXREALCONST, rcon, 0, NUM, MAX
/go
/wb,load,end               !  done creating loads
/com,--- Number of total nodes = %_numnode%
/com,--- Number of contact elements = 10
/com,--- Number of spring elements = 0
/com,--- Number of bearing elements = 0
/com,--- Number of solid elements = 500
/com,--- Number of condensed parts = 0
/com,--- Number of total elements = %_numelem%
*get,_wallbsol,active,,time,wall
/com,****************************************************************************
/com,*************************    SOLUTION       ********************************
/com,****************************************************************************
/solu
antype,0                   ! static analysis
_thickRatio=  0     ! Ratio of thick parts in the model
eqsl,sparse,,,,,1
cntr,print,1               ! print out contact info and also make no initial contact an error
cncheck,dmp		!	Enable program controlled contact splitting for distributed memory parallel run
dmpoption,emat,no             ! Don't combine emat file for DANSYS
dmpoption,esav,no             ! Don't combine esav file for DANSYS
nldiag,cont,iter           ! print out contact info each equilibrium iteration
rescontrol,,none                 ! Do not keep any restart files
/com,****************************************************
/com,******************* SOLVE FOR LS 1 OF 1 ****************
esel,s,type,,2
nsle
sfe,all,1,pres,1,0.
sfe,all,2,pres,1,-250000.000000019
sfe,all,3,pres,1,0.
nsel,all
esel,all
/nopr
/gopr
nsub,1,1,1
time,1.
outres,erase
outres,all,none
outres,nsol,all,
outres,rsol,all
outres,eangl,all
outres,etmp,all
outres,veng,all
outres,strs,all,
outres,epel,all,
outres,eppl,all,
outres,cont,all,
! *********** WB SOLVE COMMAND ***********
! check interactive state
*get,ANSINTER_,active,,int
*if,ANSINTER_,ne,0,then
/eof
*endif
solve
/com *************** Write FE CONNECTORS ********* 
CEWRITE,file,ce,,INTE
/com,****************************************************
/com,*************** FINISHED SOLVE FOR LS 1 *************
*get,_wallasol,active,,time,wall
/nopr
*get,_numnode,node,0,count
*get,_numelem,elem,0,count
*get, _MAXELEMNUM, elem, 0, NUM, MAX
*get, _MAXNODENUM, node, 0, NUM, MAX,,,INTERNAL
*get, _MAXELEMTYPE, etyp, 0, NUM, MAX
*get, _MAXREALCONST, rcon, 0, NUM, MAX
*get,_NSOLTHREADS,active,0,ntfs
*get,_NSOLPROCESSES,active,0,npfs
/gopr
/post1
xmlo,ENCODING,ISO-8859-1
xmlo,parm
/xml,parm,xml
fini
/gopr
*get,_walldone,active,,time,wall
_preptime=(_wallbsol-_wallstrt)*3600
_solvtime=(_wallasol-_wallbsol)*3600
_posttime=(_walldone-_wallasol)*3600
_totaltim=(_walldone-_wallstrt)*3600
*get,_dlbratio,active,0,solu,dlbr
*get,_combtime,active,0,solu,comb
*get,_ssmode,active,0,solu,ssmm
*get,_ndofs,active,0,solu,ndof
*get,_sol_end_time,active,0,set,time
*if,_sol_end_time,eq,1.000000,then
/fclean				!clean distributed files
*endif
/com,--- Total number of nodes = %_numnode%
/com,--- Total number of elements = %_numelem%
/com,--- Element load balance ratio = %_dlbratio%
/com,--- Time to combine distributed files = %_combtime%
/com,--- Sparse memory mode = %_ssmode%
/com,--- Number of DOF = %_ndofs%
/wb,file,end               ! done with WB generated input
